#======================================================================

# CRYSTAL DATA

#----------------------------------------------------------------------

data_VESTA_phase_1


_chemical_name_common                  ''
_cell_length_a                         4.12000
_cell_length_b                         4.12000
_cell_length_c                         13.43160
_cell_angle_alpha                      90
_cell_angle_beta                       90
_cell_angle_gamma                      120
_space_group_name_H-M_alt              'P -3 m 1'
_space_group_IT_number                 164

loop_
_space_group_symop_operation_xyz
   'x, y, z'
   '-x, -y, -z'
   '-y, x-y, z'
   'y, -x+y, -z'
   '-x+y, -x, z'
   'x-y, x, -z'
   'y, x, -z'
   '-y, -x, z'
   'x-y, -y, -z'
   '-x+y, y, z'
   '-x, -x+y, -z'
   'x, x-y, z'

loop_
   _atom_site_label
   _atom_site_occupancy
   _atom_site_fract_x
   _atom_site_fract_y
   _atom_site_fract_z
   _atom_site_adp_type
   _atom_site_B_iso_or_equiv
   _atom_site_type_symbol
   Sb1        1.0     0.666667      0.333333      0.059200     Biso  1.000000 Sb
